output/Combined/csv/Voltages.csv
Bus, BasekV, Node1, Magnitude1, Angle1, pu1, Node2, Magnitude2, Angle2, pu2, Node3, Magnitude3, Angle3, pu3
"MADKAI_SS", 11, 1,    6346.07,   -0.1,   0.99925, 2,    6346.07, -120.1,   0.99925, 3,    6346.07,  119.9,   0.99925
"3_WAY_KHARWADA", 11, 1,    6322.66,   -0.1,   0.99556, 2,    6322.66, -120.1,   0.99556, 3,    6322.66,  119.9,   0.99556
"KONAR_GAUNEM_DTC", 11, 1,    6340.44,   -0.1,   0.99836, 2,    6340.44, -120.1,   0.99836, 3,    6340.44,  119.9,   0.99836
"RAM_MANDIR", 11, 1,    6319.89,   -0.1,   0.99512, 2,    6319.89, -120.1,   0.99512, 3,    6319.89,  119.9,   0.99512
"DEMPO_DTC", 11, 1,    6315.61,   -0.1,   0.99445, 2,    6315.61, -120.1,   0.99445, 3,    6315.61,  119.9,   0.99445
"RB_ENGG", 11, 1,    6313.92,   -0.1,   0.99418, 2,    6313.92, -120.1,   0.99418, 3,    6313.92,  119.9,   0.99418
"UNDIR_BAKALE", 11, 1,    6312.23,   -0.1,   0.99392, 2,    6312.23, -120.1,   0.99392, 3,    6312.23,  119.9,   0.99392
"MULEBHAT", 11, 1,    6309.17,   -0.1,   0.99344, 2,    6309.17, -120.1,   0.99344, 3,    6309.17,  119.9,   0.99344
"MARUTI_TEMPLE", 11, 1,    6305.04,   -0.1,   0.99279, 2,    6305.04, -120.1,   0.99279, 3,    6305.04,  119.9,   0.99279
"CHIKALI", 11, 1,    6301.92,   -0.1,    0.9923, 2,    6301.92, -120.1,    0.9923, 3,    6301.92,  119.9,    0.9923
"ADPAI", 11, 1,    6299.07,   -0.1,   0.99185, 2,    6299.07, -120.1,   0.99185, 3,    6299.07,  119.9,   0.99185
"DURBHAT", 11, 1,    6296.34,   -0.1,   0.99142, 2,    6296.34, -120.1,   0.99142, 3,    6296.34,  119.9,   0.99142
"SEWERAGE", 11, 1,    6296.31,   -0.1,   0.99141, 2,    6296.31, -120.1,   0.99141, 3,    6296.31,  119.9,   0.99141
"KASWADA", 11, 1,    6295.23,   -0.1,   0.99124, 2,    6295.23, -120.1,   0.99124, 3,    6295.23,  119.9,   0.99124
"LONDIYAR_WADEM", 11, 1,    6294.43,   -0.1,   0.99112, 2,    6294.43, -120.1,   0.99112, 3,    6294.43,  119.9,   0.99112
"3_WAY_TALAULIM", 11, 1,     6294.4,   -0.1,   0.99111, 2,     6294.4, -120.1,   0.99111, 3,     6294.4,  119.9,   0.99111
"NEW_TALAULIM", 11, 1,    6294.26,   -0.1,   0.99109, 2,    6294.26, -120.1,   0.99109, 3,    6294.26,  119.9,   0.99109
"WADI", 11, 1,    6293.86,   -0.1,   0.99103, 2,    6293.86, -120.1,   0.99103, 3,    6293.86,  119.9,   0.99103
"TALAULIM", 11, 1,    6294.19,   -0.1,   0.99108, 2,    6294.19, -120.1,   0.99108, 3,    6294.19,  119.9,   0.99108
"MAHALAKSHMI_NAGAR", 11, 1,    6294.09,   -0.1,   0.99106, 2,    6294.09, -120.1,   0.99106, 3,    6294.09,  119.9,   0.99106
"PAUNWADA", 11, 1,    6294.34,   -0.1,    0.9911, 2,    6294.34, -120.1,    0.9911, 3,    6294.34,  119.9,    0.9911
"3_WAY_DON_KHAMB", 11, 1,    6294.57,   -0.1,   0.99114, 2,    6294.57, -120.1,   0.99114, 3,    6294.57,  119.9,   0.99114
"KAVLE_MATH", 11, 1,    6295.62,   -0.1,    0.9913, 2,    6295.62, -120.1,    0.9913, 3,    6295.62,  119.9,    0.9913
"SHANTADURGA_OLD", 11, 1,    6296.45,   -0.1,   0.99143, 2,    6296.45, -120.1,   0.99143, 3,    6296.45,  119.9,   0.99143
"3_WAY_SHANTADURGA", 11, 1,    6296.49,   -0.1,   0.99144, 2,    6296.49, -120.1,   0.99144, 3,    6296.49,  119.9,   0.99144
"SANATAN_1", 11, 1,    6299.94,   -0.1,   0.99198, 2,    6299.94, -120.1,   0.99198, 3,    6299.94,  119.9,   0.99198
"SANATAN_2", 11, 1,    6300.08,   -0.1,   0.99201, 2,    6300.08, -120.1,   0.99201, 3,    6300.08,  119.9,   0.99201
"RAMNATHI_DEVASTHAN", 11, 1,    6300.69,   -0.1,    0.9921, 2,    6300.69, -120.1,    0.9921, 3,    6300.69,  119.9,    0.9921
"RAMNATHI", 11, 1,    6301.58,   -0.1,   0.99224, 2,    6301.58, -120.1,   0.99224, 3,    6301.58,  119.9,   0.99224
"3_WAY_RAMNATHI", 11, 1,    6304.22,   -0.1,   0.99266, 2,    6304.22, -120.1,   0.99266, 3,    6304.22,  119.9,   0.99266
"RPRS_SCHOOL", 11, 1,    6306.64,   -0.1,   0.99304, 2,    6306.64, -120.1,   0.99304, 3,    6306.64,  119.9,   0.99304
"TOLULEM", 11, 1,    6311.72,   -0.1,   0.99384, 2,    6311.72, -120.1,   0.99384, 3,    6311.72,  119.9,   0.99384
"KHARWADA", 11, 1,     6321.3,   -0.1,   0.99535, 2,     6321.3, -120.1,   0.99535, 3,     6321.3,  119.9,   0.99535
"SHANTADURGA_NEW", 11, 1,    6296.44,   -0.1,   0.99143, 2,    6296.44, -120.1,   0.99143, 3,    6296.44,  119.9,   0.99143
"GALSHIRE", 11, 1,    6295.94,   -0.1,   0.99135, 2,    6295.94, -120.1,   0.99135, 3,    6295.94,  119.9,   0.99135
"3_WAY_GALSHIRE", 11, 1,     6294.6,   -0.1,   0.99114, 2,     6294.6, -120.1,   0.99114, 3,     6294.6,  119.9,   0.99114
"3_WAY_HARISH_BAR", 11, 1,     6294.2,   -0.1,   0.99108, 2,     6294.2, -120.1,   0.99108, 3,     6294.2,  119.9,   0.99108
"SNEH_MANDIR", 11, 1,    6293.88,   -0.1,   0.99103, 2,    6293.88, -120.1,   0.99103, 3,    6293.88,  119.9,   0.99103
"RAJENDRA_TALAK", 11, 1,    6293.59,   -0.1,   0.99098, 2,    6293.59, -120.1,   0.99098, 3,    6293.59,  119.9,   0.99098
"RITESH_DEVELOPERS", 11, 1,    6293.42,   -0.1,   0.99096, 2,    6293.42, -120.1,   0.99096, 3,    6293.42,  119.9,   0.99096
"VENKATESH_LEELA", 11, 1,    6293.18,   -0.1,   0.99092, 2,    6293.18, -120.1,   0.99092, 3,    6293.18,  119.9,   0.99092
"PERIGOL", 11, 1,     6292.9,   -0.1,   0.99088, 2,     6292.9, -120.1,   0.99088, 3,     6292.9,  119.9,   0.99088
"MANMOHAN_SINGH", 11, 1,    6292.86,   -0.1,   0.99087, 2,    6292.86, -120.1,   0.99087, 3,    6292.86,  119.9,   0.99087
"DHUMRE", 11, 1,    6292.97,   -0.1,   0.99089, 2,    6292.97, -120.1,   0.99089, 3,    6292.97,  119.9,   0.99089
"3_WAY_ROYAL_ENFIELD", 11, 1,    6293.36,   -0.1,   0.99095, 2,    6293.36, -120.1,   0.99095, 3,    6293.36,  119.9,   0.99095
"SHASHIKALA_PAI", 11, 1,    6294.06,   -0.1,   0.99106, 2,    6294.06, -120.1,   0.99106, 3,    6294.06,  119.9,   0.99106
"KAPILESHWARI", 11, 1,    6293.94,   -0.1,   0.99104, 2,    6293.94, -120.1,   0.99104, 3,    6293.94,  119.9,   0.99104
"3_WAY_RATHAMAL", 11, 1,    6293.83,   -0.1,   0.99102, 2,    6293.83, -120.1,   0.99102, 3,    6293.83,  119.9,   0.99102
"MATRUCHAYA", 11, 1,    6293.57,   -0.1,   0.99098, 2,    6293.57, -120.1,   0.99098, 3,    6293.57,  119.9,   0.99098
"3_WAY_SHANTINAGAR", 11, 1,    6293.52,   -0.1,   0.99097, 2,    6293.52, -120.1,   0.99097, 3,    6293.52,  119.9,   0.99097
"VAMNESHWAR", 11, 1,    6293.37,   -0.1,   0.99095, 2,    6293.37, -120.1,   0.99095, 3,    6293.37,  119.9,   0.99095
"GOLDEN_PROPERTIES", 11, 1,    6293.52,   -0.1,   0.99097, 2,    6293.52, -120.1,   0.99097, 3,    6293.52,  119.9,   0.99097
"RITESH", 11, 1,    6293.52,   -0.1,   0.99097, 2,    6293.52, -120.1,   0.99097, 3,    6293.52,  119.9,   0.99097
"MG_SCHOOL_DTC", 11, 1,    6339.46,   -0.1,   0.99821, 2,    6339.46, -120.1,   0.99821, 3,    6339.46,  119.9,   0.99821
"CHAFERAN_DTC", 11, 1,    6338.74,   -0.1,   0.99809, 2,    6338.74, -120.1,   0.99809, 3,    6338.74,  119.9,   0.99809
"SHIGUMOMAND_DTC", 11, 1,    6338.32,   -0.1,   0.99803, 2,    6338.32, -120.1,   0.99803, 3,    6338.32,  119.9,   0.99803
"MOGRU_DTC", 11, 1,    6336.27,   -0.1,    0.9977, 2,    6336.27, -120.1,    0.9977, 3,    6336.27,  119.9,    0.9977
"SHAMRAO_BUILDERS_DTC", 11, 1,    6332.92,   -0.1,   0.99718, 2,    6332.92, -120.1,   0.99718, 3,    6332.92,  119.9,   0.99718
"KUNAL_DTC", 11, 1,    6332.01,   -0.1,   0.99703, 2,    6332.01, -120.1,   0.99703, 3,    6332.01,  119.9,   0.99703
"PEARL_DTC", 11, 1,    6331.69,   -0.1,   0.99698, 2,    6331.69, -120.1,   0.99698, 3,    6331.69,  119.9,   0.99698
"MAHALAXMI_BANDORA_DTC", 11, 1,    6330.58,   -0.1,   0.99681, 2,    6330.58, -120.1,   0.99681, 3,    6330.58,  119.9,   0.99681
"AGRA_SHALA_DTC", 11, 1,    6330.36,   -0.1,   0.99677, 2,    6330.36, -120.1,   0.99677, 3,    6330.36,  119.9,   0.99677
"TILVE_RMU", 11, 1,    6329.42,   -0.1,   0.99662, 2,    6329.42, -120.1,   0.99662, 3,    6329.42,  119.9,   0.99662
"HINDU_JAN_JAGRUTI_DTC", 11, 1,    6329.35,   -0.1,   0.99661, 2,    6329.35, -120.1,   0.99661, 3,    6329.35,  119.9,   0.99661
"VAGDOR_DTC", 11, 1,    6329.35,   -0.1,   0.99661, 2,    6329.35, -120.1,   0.99661, 3,    6329.35,  119.9,   0.99661
"NAGESHI_TEMPLE_DTC", 11, 1,    6328.45,   -0.1,   0.99647, 2,    6328.45, -120.1,   0.99647, 3,    6328.45,  119.9,   0.99647
"DHONSHI_DTC", 11, 1,    6328.31,   -0.1,   0.99645, 2,    6328.31, -120.1,   0.99645, 3,    6328.31,  119.9,   0.99645
"BANDORA_PANCHAYAT_RMU", 11, 1,    6328.07,   -0.1,   0.99641, 2,    6328.07, -120.1,   0.99641, 3,    6328.07,  119.9,   0.99641
"KASHIMATHGROUND_DTC", 11, 1,    6328.07,   -0.1,   0.99641, 2,    6328.07, -120.1,   0.99641, 3,    6328.07,  119.9,   0.99641
"RAINGUINIM", 11, 1,    6327.93,   -0.1,   0.99639, 2,    6327.93, -120.1,   0.99639, 3,    6327.93,  119.9,   0.99639
"3_WAY_SNEH_MANDIR", 11, 1,     6294.2,   -0.1,   0.99108, 2,     6294.2, -120.1,   0.99108, 3,     6294.2,  119.9,   0.99108
"RAM_MANDIRBUS1", 0.415, 1,    236.568,  -30.6,   0.98734, 2,    236.568, -150.6,   0.98734, 3,    236.568,   89.4,   0.98734
"DEMPO_DTCBUS1", 0.415, 1,    238.073,  -30.1,   0.99363, 2,    238.073, -150.1,   0.99363, 3,    238.073,   89.9,   0.99363
"RB_ENGGBUS1", 0.415, 1,    238.034,  -30.1,   0.99346, 2,    238.034, -150.1,   0.99346, 3,    238.034,   89.9,   0.99346
"UNDIR_BAKALEBUS1", 0.415, 1,    236.277,  -30.6,   0.98613, 2,    236.277, -150.6,   0.98613, 3,    236.277,   89.4,   0.98613
"MULEBHATBUS1", 0.415, 1,    236.003,  -30.7,   0.98498, 2,    236.003, -150.7,   0.98498, 3,    236.003,   89.3,   0.98498
"MARUTI_TEMPLEBUS1", 0.415, 1,    236.161,  -30.6,   0.98564, 2,    236.161, -150.6,   0.98564, 3,    236.161,   89.4,   0.98564
"CHIKALIBUS1", 0.415, 1,    236.199,  -30.6,   0.98581, 2,    236.199, -150.6,   0.98581, 3,    236.199,   89.4,   0.98581
"ADPAIBUS1", 0.415, 1,    235.142,  -30.8,   0.98139, 2,    235.142, -150.8,   0.98139, 3,    235.142,   89.2,   0.98139
"DURBHATBUS1", 0.415, 1,    235.038,  -30.9,   0.98096, 2,    235.038, -150.9,   0.98096, 3,    235.038,   89.1,   0.98096
"SEWERAGEBUS1", 0.415, 1,    237.313,  -30.2,   0.99045, 2,    237.313, -150.2,   0.99045, 3,    237.313,   89.8,   0.99045
"KASWADABUS1", 0.415, 1,    235.155,  -30.8,   0.98145, 2,    235.155, -150.8,   0.98145, 3,    235.155,   89.2,   0.98145
"LONDIYAR_WADEMBUS1", 0.415, 1,    234.965,  -30.9,   0.98065, 2,    234.965, -150.9,   0.98065, 3,    234.965,   89.1,   0.98065
"NEW_TALAULIMBUS1", 0.415, 1,    236.514,  -30.4,   0.98712, 2,    236.514, -150.4,   0.98712, 3,    236.514,   89.6,   0.98712
"WADIBUS1", 0.415, 1,    235.736,  -30.6,   0.98387, 2,    235.736, -150.6,   0.98387, 3,    235.736,   89.4,   0.98387
"TALAULIMBUS1", 0.415, 1,    235.865,  -30.6,   0.98441, 2,    235.865, -150.6,   0.98441, 3,    235.865,   89.4,   0.98441
"MAHALAKSHMI_NAGARBUS1", 0.415, 1,    234.952,  -30.9,    0.9806, 2,    234.952, -150.9,    0.9806, 3,    234.952,   89.1,    0.9806
"PAUNWADABUS1", 0.415, 1,    234.991,  -31.0,   0.98076, 2,    234.991, -151.0,   0.98076, 3,    234.991,   89.0,   0.98076
"KAVLE_MATHBUS1", 0.415, 1,    236.659,  -30.4,   0.98772, 2,    236.659, -150.4,   0.98772, 3,    236.659,   89.6,   0.98772
"SHANTADURGA_OLDBUS1", 0.415, 1,    236.823,  -30.3,   0.98841, 2,    236.823, -150.3,   0.98841, 3,    236.823,   89.7,   0.98841
"SANATAN_1BUS1", 0.415, 1,    235.809,  -30.7,   0.98418, 2,    235.809, -150.7,   0.98418, 3,    235.809,   89.3,   0.98418
"SANATAN_2BUS1", 0.415, 1,    237.682,  -30.1,   0.99199, 2,    237.682, -150.1,   0.99199, 3,    237.682,   89.9,   0.99199
"RAMNATHI_DEVASTHANBUS1", 0.415, 1,     236.82,  -30.4,    0.9884, 2,     236.82, -150.4,    0.9884, 3,     236.82,   89.6,    0.9884
"RAMNATHIBUS1", 0.415, 1,    237.738,  -30.1,   0.99223, 2,    237.738, -150.1,   0.99223, 3,    237.738,   89.9,   0.99223
"RPRS_SCHOOLBUS1", 0.415, 1,    237.695,  -30.2,   0.99205, 2,    237.695, -150.2,   0.99205, 3,    237.695,   89.8,   0.99205
"TOLULEMBUS1", 0.415, 1,    238.121,  -30.1,   0.99382, 2,    238.121, -150.1,   0.99382, 3,    238.121,   89.9,   0.99382
"KHARWADABUS1", 0.415, 1,    238.482,  -30.1,   0.99533, 2,    238.482, -150.1,   0.99533, 3,    238.482,   89.9,   0.99533
"SHANTADURGA_NEWBUS1", 0.415, 1,    235.968,  -30.6,   0.98484, 2,    235.968, -150.6,   0.98484, 3,    235.968,   89.4,   0.98484
"GALSHIREBUS1", 0.415, 1,    235.023,  -30.9,    0.9809, 2,    235.023, -150.9,    0.9809, 3,    235.023,   89.1,    0.9809
"RAJENDRA_TALAKBUS1", 0.415, 1,    237.397,  -30.1,    0.9908, 2,    237.397, -150.1,    0.9908, 3,    237.397,   89.9,    0.9908
"RITESH_DEVELOPERSBUS1", 0.415, 1,    237.329,  -30.1,   0.99052, 2,    237.329, -150.1,   0.99052, 3,    237.329,   89.9,   0.99052
"VENKATESH_LEELABUS1", 0.415, 1,    237.421,  -30.1,   0.99091, 2,    237.421, -150.1,   0.99091, 3,    237.421,   89.9,   0.99091
"PERIGOLBUS1", 0.415, 1,    235.124,  -30.9,   0.98132, 2,    235.124, -150.9,   0.98132, 3,    235.124,   89.1,   0.98132
"MANMOHAN_SINGHBUS1", 0.415, 1,    235.676,  -30.6,   0.98362, 2,    235.676, -150.6,   0.98362, 3,    235.676,   89.4,   0.98362
"DHUMREBUS1", 0.415, 1,     234.91,  -30.9,   0.98042, 2,     234.91, -150.9,   0.98042, 3,     234.91,   89.1,   0.98042
"SHASHIKALA_PAIBUS1", 0.415, 1,    237.454,  -30.1,   0.99104, 2,    237.454, -150.1,   0.99104, 3,    237.454,   89.9,   0.99104
"KAPILESHWARIBUS1", 0.415, 1,    235.641,  -30.6,   0.98348, 2,    235.641, -150.6,   0.98348, 3,    235.641,   89.4,   0.98348
"MATRUCHAYABUS1", 0.415, 1,    235.882,  -30.6,   0.98448, 2,    235.882, -150.6,   0.98448, 3,    235.882,   89.4,   0.98448
"VAMNESHWARBUS1", 0.415, 1,    235.559,  -30.7,   0.98313, 2,    235.559, -150.7,   0.98313, 3,    235.559,   89.3,   0.98313
"GOLDEN_PROPERTIESBUS1", 0.415, 1,    237.434,  -30.1,   0.99096, 2,    237.434, -150.1,   0.99096, 3,    237.434,   89.9,   0.99096
"RITESHBUS1", 0.415, 1,    237.434,  -30.1,   0.99096, 2,    237.434, -150.1,   0.99096, 3,    237.434,   89.9,   0.99096
"SNEHMANDIR_LV", 0.415, 1,    235.737,  -30.6,   0.98387, 2,    235.737, -150.6,   0.98387, 3,    235.737,   89.4,   0.98387
"RAINGUINIM_LV", 0.415, 1,    236.931,  -30.6,   0.98886, 2,    236.931, -150.6,   0.98886, 3,    236.931,   89.4,   0.98886
"BANDORAP_LV", 0.415, 1,    236.879,  -30.6,   0.98864, 2,    236.879, -150.6,   0.98864, 3,    236.879,   89.4,   0.98864
"KASHIMATHG_LV", 0.415, 1,    238.737,  -30.1,    0.9964, 2,    238.737, -150.1,    0.9964, 3,    238.737,   89.9,    0.9964
"NAGESHIT_LV", 0.415, 1,    237.078,  -30.6,   0.98947, 2,    237.078, -150.6,   0.98947, 3,    237.078,   89.4,   0.98947
"DHONSHI_LV", 0.415, 1,    236.573,  -30.7,   0.98737, 2,    236.573, -150.7,   0.98737, 3,    236.573,   89.3,   0.98737
"AGRASHALA_LV", 0.415, 1,    237.337,  -30.5,   0.99055, 2,    237.337, -150.5,   0.99055, 3,    237.337,   89.5,   0.99055
"HINDUJAN_LV", 0.415, 1,    236.613,  -30.7,   0.98753, 2,    236.613, -150.7,   0.98753, 3,    236.613,   89.3,   0.98753
"VAGDOR_LV", 0.415, 1,    238.786,  -30.1,    0.9966, 2,    238.786, -150.1,    0.9966, 3,    238.786,   89.9,    0.9966
"MAHALAXMI_LV", 0.415, 1,    236.344,  -30.8,   0.98641, 2,    236.344, -150.8,   0.98641, 3,    236.344,   89.2,   0.98641
"PEARL_LV", 0.415, 1,     237.33,  -30.5,   0.99052, 2,     237.33, -150.5,   0.99052, 3,     237.33,   89.5,   0.99052
"KUNAL_LV", 0.415, 1,    237.186,  -30.6,   0.98992, 2,    237.186, -150.6,   0.98992, 3,    237.186,   89.4,   0.98992
"SHAMRAO_LV", 0.415, 1,    238.512,  -30.2,   0.99546, 2,    238.512, -150.2,   0.99546, 3,    238.512,   89.8,   0.99546
"MOGRU_LV", 0.415, 1,    239.047,  -30.1,   0.99769, 2,    239.047, -150.1,   0.99769, 3,    239.047,   89.9,   0.99769
"KONARGAUNEM_LV", 0.415, 1,    237.595,  -30.5,   0.99163, 2,    237.595, -150.5,   0.99163, 3,    237.595,   89.5,   0.99163
"MGSCHOOL_LV", 0.415, 1,    238.791,  -30.2,   0.99662, 2,    238.791, -150.2,   0.99662, 3,    238.791,   89.8,   0.99662
"CHAFERAN_LV", 0.415, 1,    237.193,  -30.6,   0.98995, 2,    237.193, -150.6,   0.98995, 3,    237.193,   89.4,   0.98995
"SHIGUMOMAND_LV", 0.415, 1,    236.955,  -30.7,   0.98896, 2,    236.955, -150.7,   0.98896, 3,    236.955,   89.3,   0.98896
"COLONY_SS", 11, 1,    6305.94,   -0.5,   0.99293, 2,    6305.94, -120.5,   0.99293, 3,    6305.94,  119.5,   0.99293
"3_WAY_GOA_DAIRY_1", 11, 1,    6303.88,   -0.5,    0.9926, 2,    6303.88, -120.5,    0.9926, 3,    6303.88,  119.5,    0.9926
"FORENSIC", 11, 1,    6302.28,   -0.5,   0.99235, 2,    6302.28, -120.5,   0.99235, 3,    6302.28,  119.5,   0.99235
"DADA_VAIDYA", 11, 1,    6300.66,   -0.5,    0.9921, 2,    6300.66, -120.5,    0.9921, 3,    6300.66,  119.5,    0.9921
"3_WAY_DADA_VAIDYA", 11, 1,    6300.54,   -0.5,   0.99208, 2,    6300.54, -120.5,   0.99208, 3,    6300.54,  119.5,   0.99208
"KAYJI_GARDEN", 11, 1,    6298.61,   -0.5,   0.99177, 2,    6298.61, -120.5,   0.99177, 3,    6298.61,  119.5,   0.99177
"FIBERGLASS", 11, 1,    6297.43,   -0.5,   0.99159, 2,    6297.43, -120.5,   0.99159, 3,    6297.43,  119.5,   0.99159
"4_WAY_SAISERVICE", 11, 1,    6296.98,   -0.5,   0.99152, 2,    6296.98, -120.5,   0.99152, 3,    6296.98,  119.5,   0.99152
"AGARWAL_HTC", 11, 1,    6296.76,   -0.5,   0.99148, 2,    6296.76, -120.5,   0.99148, 3,    6296.76,  119.5,   0.99148
"YUMMY_ICECREAM", 11, 1,    6296.04,   -0.5,   0.99137, 2,    6296.04, -120.5,   0.99137, 3,    6296.04,  119.5,   0.99137
"SHIVLAL", 11, 1,    6295.63,   -0.5,    0.9913, 2,    6295.63, -120.5,    0.9913, 3,    6295.63,  119.5,    0.9913
"KELBAI", 11, 1,    6293.49,   -0.5,   0.99097, 2,    6293.49, -120.5,   0.99097, 3,    6293.49,  119.5,   0.99097
"3_WAY_DOCTOR", 11, 1,    6292.86,   -0.5,   0.99087, 2,    6292.86, -120.5,   0.99087, 3,    6292.86,  119.5,   0.99087
"SURYA_MASALA", 11, 1,    6292.32,   -0.5,   0.99078, 2,    6292.32, -120.5,   0.99078, 3,    6292.32,  119.5,   0.99078
"PISGAL", 11, 1,    6291.42,   -0.5,   0.99064, 2,    6291.42, -120.5,   0.99064, 3,    6291.42,  119.5,   0.99064
"3_WAY_GOADAIRY2", 11, 1,    6303.82,   -0.5,   0.99259, 2,    6303.82, -120.5,   0.99259, 3,    6303.82,  119.5,   0.99259
"DAIRY_HTC", 11, 1,    6303.41,   -0.5,   0.99253, 2,    6303.41, -120.5,   0.99253, 3,    6303.41,  119.5,   0.99253
"DAIRY_OLD", 11, 1,    6302.42,   -0.5,   0.99237, 2,    6302.42, -120.5,   0.99237, 3,    6302.42,  119.5,   0.99237
"3_WAY_MICROWAVE", 11, 1,    6299.85,   -0.5,   0.99197, 2,    6299.85, -120.5,   0.99197, 3,    6299.85,  119.5,   0.99197
"MICROWAVE", 11, 1,    6299.84,   -0.5,   0.99197, 2,    6299.84, -120.5,   0.99197, 3,    6299.84,  119.5,   0.99197
"3_WAY_VEREKAR", 11, 1,    6298.65,   -0.5,   0.99178, 2,    6298.65, -120.5,   0.99178, 3,    6298.65,  119.5,   0.99178
"3_WAY_SAHAKARI", 11, 1,    6298.65,   -0.5,   0.99178, 2,    6298.65, -120.5,   0.99178, 3,    6298.65,  119.5,   0.99178
"ECAP_HTC", 11, 1,    6296.52,   -0.5,   0.99144, 2,    6296.52, -120.5,   0.99144, 3,    6296.52,  119.5,   0.99144
"PRAKASH", 11, 1,    6296.41,   -0.5,   0.99143, 2,    6296.41, -120.5,   0.99143, 3,    6296.41,  119.5,   0.99143
"KAYJI_SKYLINE", 11, 1,    6295.34,   -0.5,   0.99126, 2,    6295.34, -120.5,   0.99126, 3,    6295.34,  119.5,   0.99126
"RUDRA_DEVELOPER", 11, 1,     6294.9,   -0.5,   0.99119, 2,     6294.9, -120.5,   0.99119, 3,     6294.9,  119.5,   0.99119
"3_WAY_KHADPABANDH", 11, 1,     6294.9,   -0.5,   0.99119, 2,     6294.9, -120.5,   0.99119, 3,     6294.9,  119.5,   0.99119
"ASSOCIATE", 11, 1,    6296.22,   -0.5,    0.9914, 2,    6296.22, -120.5,    0.9914, 3,    6296.22,  119.5,    0.9914
"KV_SCHOOL", 11, 1,    6295.93,   -0.5,   0.99135, 2,    6295.93, -120.5,   0.99135, 3,    6295.93,  119.5,   0.99135
"KORDE", 11, 1,    6295.23,   -0.5,   0.99124, 2,    6295.23, -120.5,   0.99124, 3,    6295.23,  119.5,   0.99124
"KAPAT_FACTORY", 11, 1,       6295,   -0.5,    0.9912, 2,       6295, -120.5,    0.9912, 3,       6295,  119.5,    0.9912
"2_WAY_CONEMI", 11, 1,    6295.03,   -0.5,   0.99121, 2,    6295.03, -120.5,   0.99121, 3,    6295.03,  119.5,   0.99121
"3_WAY_COPPERWADA_2", 11, 1,    6298.53,   -0.5,   0.99176, 2,    6298.53, -120.5,   0.99176, 3,    6298.53,  119.5,   0.99176
"3_WAY_COPPERWADA_1", 11, 1,     6297.8,   -0.5,   0.99165, 2,     6297.8, -120.5,   0.99165, 3,     6297.8,  119.5,   0.99165
"DOCTOR_BAKALE", 11, 1,    6294.76,   -0.5,   0.99117, 2,    6294.76, -120.5,   0.99117, 3,    6294.76,  119.5,   0.99117
"4_WAY_VEREKAR", 11, 1,    6297.66,   -0.5,   0.99162, 2,    6297.66, -120.5,   0.99162, 3,    6297.66,  119.5,   0.99162
"FORENSICBUS1", 0.415, 1,      237.2,  -30.6,   0.98998, 2,      237.2, -150.6,   0.98998, 3,      237.2,   89.4,   0.98998
"DADA_VAIDYABUS2", 0.415, 1,    234.572,  -31.3,   0.97901, 2,    234.572, -151.3,   0.97901, 3,    234.572,   88.7,   0.97901
"KAYJI_GARDENBUS3", 0.415, 1,    235.698,  -31.1,   0.98371, 2,    235.698, -151.1,   0.98371, 3,    235.698,   88.9,   0.98371
"FIBERGLASSBUS4", 0.415, 1,    237.049,  -30.6,   0.98935, 2,    237.049, -150.6,   0.98935, 3,    237.049,   89.4,   0.98935
"AGARWAL_HTCBUS5", 0.415, 1,    237.045,  -30.7,   0.98934, 2,    237.045, -150.7,   0.98934, 3,    237.045,   89.3,   0.98934
"YUMMY_ICECREAMBUS6", 0.415, 1,    236.921,  -30.6,   0.98882, 2,    236.921, -150.6,   0.98882, 3,    236.921,   89.4,   0.98882
"SHIVLALBUS7", 0.415, 1,    236.556,  -30.8,    0.9873, 2,    236.556, -150.8,    0.9873, 3,    236.556,   89.2,    0.9873
"KELBAIBUS8", 0.415, 1,    235.358,  -31.1,    0.9823, 2,    235.358, -151.1,    0.9823, 3,    235.358,   88.9,    0.9823
"SURYA_MASALABUS9", 0.415, 1,    234.803,  -31.2,   0.97998, 2,    234.803, -151.2,   0.97998, 3,    234.803,   88.8,   0.97998
"DOCTOR_BAKALEBUS10", 0.415, 1,    235.545,  -31.1,   0.98307, 2,    235.545, -151.1,   0.98307, 3,    235.545,   88.9,   0.98307
"ECAP_HTCBUS11", 0.415, 1,     237.04,  -30.7,   0.98931, 2,     237.04, -150.7,   0.98931, 3,     237.04,   89.3,   0.98931
"PRAKASHBUS12", 0.415, 1,    234.765,  -31.3,   0.97982, 2,    234.765, -151.3,   0.97982, 3,    234.765,   88.7,   0.97982
"KAYJI_SKYLINEBUS13", 0.415, 1,    235.073,  -31.3,    0.9811, 2,    235.073, -151.3,    0.9811, 3,    235.073,   88.7,    0.9811
"RUDRA_DEVELOPERBUS14", 0.415, 1,    234.892,  -31.3,   0.98035, 2,    234.892, -151.3,   0.98035, 3,    234.892,   88.7,   0.98035
"ASSOCIATEBUS15", 0.415, 1,    237.072,  -30.6,   0.98945, 2,    237.072, -150.6,   0.98945, 3,    237.072,   89.4,   0.98945
"KV_SCHOOLBUS16", 0.415, 1,    236.958,  -30.7,   0.98897, 2,    236.958, -150.7,   0.98897, 3,    236.958,   89.3,   0.98897
"KORDEBUS17", 0.415, 1,    235.775,  -31.0,   0.98403, 2,    235.775, -151.0,   0.98403, 3,    235.775,   89.0,   0.98403
"KAPAT_FACTORYBUS18", 0.415, 1,    236.881,  -30.7,   0.98865, 2,    236.881, -150.7,   0.98865, 3,    236.881,   89.3,   0.98865
"VEREKARBUS19", 0.415, 1,    235.335,  -31.2,    0.9822, 2,    235.335, -151.2,    0.9822, 3,    235.335,   88.8,    0.9822
"MICROWAVEBUS20", 0.415, 1,    237.177,  -30.6,   0.98989, 2,    237.177, -150.6,   0.98989, 3,    237.177,   89.4,   0.98989
"DAIRY_OLDBUS21", 0.415, 1,    235.188,  -31.2,   0.98159, 2,    235.188, -151.2,   0.98159, 3,    235.188,   88.8,   0.98159
"DAIRY_HTCBUS22", 0.415, 1,    237.286,  -30.6,   0.99034, 2,    237.286, -150.6,   0.99034, 3,    237.286,   89.4,   0.99034
"PISGALBUS23", 0.415, 1,    235.089,  -31.2,   0.98117, 2,    235.089, -151.2,   0.98117, 3,    235.089,   88.8,   0.98117
"GOLDEN_NEST", 11, 1,    6294.72,   -0.5,   0.99116, 2,    6294.72, -120.5,   0.99116, 3,    6294.72,  119.5,   0.99116
"RATNADEEP_APT", 11, 1,    6289.93,   -0.5,   0.99041, 2,    6289.93, -120.5,   0.99041, 3,    6289.93,  119.5,   0.99041
"SUREKHA_PARKAR", 11, 1,    6285.84,   -0.5,   0.98976, 2,    6285.84, -120.5,   0.98976, 3,    6285.84,  119.5,   0.98976
"NAGZAR", 11, 1,    6281.12,   -0.5,   0.98902, 2,    6281.12, -120.5,   0.98902, 3,    6281.12,  119.5,   0.98902
"3_WAY_SURAJ_BAR", 11, 1,    6280.82,   -0.5,   0.98897, 2,    6280.82, -120.5,   0.98897, 3,    6280.82,  119.5,   0.98897
"SARTHAK_NEST", 11, 1,    6279.35,   -0.5,   0.98874, 2,    6279.35, -120.5,   0.98874, 3,    6279.35,  119.5,   0.98874
"PROGRESS", 11, 1,    6277.24,   -0.5,   0.98841, 2,    6277.24, -120.5,   0.98841, 3,    6277.24,  119.5,   0.98841
"3_WAY_PROGRESS", 11, 1,    6276.97,   -0.5,   0.98837, 2,    6276.97, -120.5,   0.98837, 3,    6276.97,  119.5,   0.98837
"COMMERTIAL_TAX", 11, 1,    6275.71,   -0.5,   0.98817, 2,    6275.71, -120.5,   0.98817, 3,    6275.71,  119.5,   0.98817
"SADASHIV_TWIN_TOWER", 11, 1,    6274.74,   -0.5,   0.98802, 2,    6274.74, -120.5,   0.98802, 3,    6274.74,  119.5,   0.98802
"VEREKAR_2", 11, 1,     6273.5,   -0.5,   0.98782, 2,     6273.5, -120.5,   0.98782, 3,     6273.5,  119.5,   0.98782
"3_WAY_VEREKAR_2", 11, 1,    6273.25,   -0.5,   0.98778, 2,    6273.25, -120.5,   0.98778, 3,    6273.25,  119.5,   0.98778
"BANDODKAR", 11, 1,    6270.93,   -0.5,   0.98742, 2,    6270.93, -120.5,   0.98742, 3,    6270.93,  119.5,   0.98742
"PANDITWADA", 11, 1,    6273.07,   -0.5,   0.98775, 2,    6273.07, -120.5,   0.98775, 3,    6273.07,  119.5,   0.98775
"3_WAY_BAGAYTDAR", 11, 1,     6270.7,   -0.5,   0.98738, 2,     6270.7, -120.5,   0.98738, 3,     6270.7,  119.5,   0.98738
"KAZIWADA", 11, 1,    6269.12,   -0.5,   0.98713, 2,    6269.12, -120.5,   0.98713, 3,    6269.12,  119.5,   0.98713
"TWIN_TOWER", 11, 1,    6267.44,   -0.5,   0.98687, 2,    6267.44, -120.5,   0.98687, 3,    6267.44,  119.5,   0.98687
"HOTEL_MENINO", 11, 1,    6265.71,   -0.5,   0.98659, 2,    6265.71, -120.5,   0.98659, 3,    6265.71,  119.5,   0.98659
"3W_CANARA", 11, 1,    6264.26,   -0.5,   0.98637, 2,    6264.26, -120.5,   0.98637, 3,    6264.26,  119.5,   0.98637
"3_WAY_BHOSLE_1", 11, 1,    6263.29,   -0.5,   0.98621, 2,    6263.29, -120.5,   0.98621, 3,    6263.29,  119.5,   0.98621
"CANARA_BANK", 11, 1,    6264.25,   -0.5,   0.98636, 2,    6264.25, -120.5,   0.98636, 3,    6264.25,  119.5,   0.98636
"KCA", 11, 1,    6264.18,   -0.5,   0.98635, 2,    6264.18, -120.5,   0.98635, 3,    6264.18,  119.5,   0.98635
"2W_GANGANATH", 11, 1,    6264.18,   -0.5,   0.98635, 2,    6264.18, -120.5,   0.98635, 3,    6264.18,  119.5,   0.98635
"3_WAY_BHOSLE_2", 11, 1,    6263.09,   -0.5,   0.98618, 2,    6263.09, -120.5,   0.98618, 3,    6263.09,  119.5,   0.98618
"SUPER_MARKET", 11, 1,    6263.09,   -0.5,   0.98618, 2,    6263.09, -120.5,   0.98618, 3,    6263.09,  119.5,   0.98618
"3_WAY_BAZAR", 11, 1,    6263.09,   -0.5,   0.98618, 2,    6263.09, -120.5,   0.98618, 3,    6263.09,  119.5,   0.98618
"BHOSLE", 11, 1,    6262.96,   -0.5,   0.98616, 2,    6262.96, -120.5,   0.98616, 3,    6262.96,  119.5,   0.98616
"KANIR_CONSTRUCTION_HTC", 11, 1,    6262.61,   -0.5,   0.98611, 2,    6262.61, -120.5,   0.98611, 3,    6262.61,  119.5,   0.98611
"KANIR_CONSTRUCTION", 11, 1,    6262.21,   -0.5,   0.98604, 2,    6262.21, -120.5,   0.98604, 3,    6262.21,  119.5,   0.98604
"BSNL_INTERNAL", 11, 1,    6261.83,   -0.5,   0.98598, 2,    6261.83, -120.5,   0.98598, 3,    6261.83,  119.5,   0.98598
"KAMAT_AVR_REALTORS", 11, 1,    6261.64,   -0.5,   0.98595, 2,    6261.64, -120.5,   0.98595, 3,    6261.64,  119.5,   0.98595
"COELO", 11, 1,    6261.51,   -0.5,   0.98593, 2,    6261.51, -120.5,   0.98593, 3,    6261.51,  119.5,   0.98593
"DK_ARCADE", 11, 1,    6261.39,   -0.5,   0.98591, 2,    6261.39, -120.5,   0.98591, 3,    6261.39,  119.5,   0.98591
"GOA_STATE_BANK", 11, 1,    6260.59,   -0.5,   0.98579, 2,    6260.59, -120.5,   0.98579, 3,    6260.59,  119.5,   0.98579
"3_WAY_MUNCIPALITY", 11, 1,    6259.84,   -0.5,   0.98567, 2,    6259.84, -120.5,   0.98567, 3,    6259.84,  119.5,   0.98567
"3_WAY_TISK", 11, 1,    6259.09,   -0.5,   0.98555, 2,    6259.09, -120.5,   0.98555, 3,    6259.09,  119.5,   0.98555
"3_WAY_MAMLATDAR", 11, 1,       6258,   -0.5,   0.98538, 2,       6258, -120.5,   0.98538, 3,       6258,  119.5,   0.98538
"MAMLADTDAR", 11, 1,    6257.45,   -0.5,   0.98529, 2,    6257.45, -120.5,   0.98529, 3,    6257.45,  119.5,   0.98529
"TARANGAN_I", 11, 1,    6256.38,   -0.5,   0.98512, 2,    6256.38, -120.5,   0.98512, 3,    6256.38,  119.5,   0.98512
"RAJMUDRA_I", 11, 1,    6255.48,   -0.5,   0.98498, 2,    6255.48, -120.5,   0.98498, 3,    6255.48,  119.5,   0.98498
"PWD", 11, 1,    6255.03,   -0.5,   0.98491, 2,    6255.03, -120.5,   0.98491, 3,    6255.03,  119.5,   0.98491
"RAJMUDRA_II", 11, 1,    6254.33,   -0.5,    0.9848, 2,    6254.33, -120.5,    0.9848, 3,    6254.33,  119.5,    0.9848
"RAJ_DURGA", 11, 1,    6254.28,   -0.5,   0.98479, 2,    6254.28, -120.5,   0.98479, 3,    6254.28,  119.5,   0.98479
"SUMIT_PLUMERIA", 11, 1,    6254.06,   -0.5,   0.98476, 2,    6254.06, -120.5,   0.98476, 3,    6254.06,  119.5,   0.98476
"3_WAY_DAAG", 11, 1,    6253.82,   -0.5,   0.98472, 2,    6253.82, -120.5,   0.98472, 3,    6253.82,  119.5,   0.98472
"DAAG", 11, 1,    6253.58,   -0.5,   0.98468, 2,    6253.58, -120.5,   0.98468, 3,    6253.58,  119.5,   0.98468
"4_WAY_MENINO", 11, 1,    6261.89,   -0.5,   0.98599, 2,    6261.89, -120.5,   0.98599, 3,    6261.89,  119.5,   0.98599
"SUMIT_SHIVAM", 11, 1,    6261.69,   -0.5,   0.98596, 2,    6261.69, -120.5,   0.98596, 3,    6261.69,  119.5,   0.98596
"KALPANA", 11, 1,    6261.51,   -0.5,   0.98593, 2,    6261.51, -120.5,   0.98593, 3,    6261.51,  119.5,   0.98593
"2_WAY_SHANTINAGAR", 11, 1,    6261.51,   -0.5,   0.98593, 2,    6261.51, -120.5,   0.98593, 3,    6261.51,  119.5,   0.98593
"POLICE_STATION", 11, 1,    6260.87,   -0.5,   0.98583, 2,    6260.87, -120.5,   0.98583, 3,    6260.87,  119.5,   0.98583
"3_WAY_APOLLO", 11, 1,     6260.3,   -0.5,   0.98574, 2,     6260.3, -120.5,   0.98574, 3,     6260.3,  119.5,   0.98574
"RAJDEEP_GALARIA_I", 11, 1,    6260.21,   -0.5,   0.98573, 2,    6260.21, -120.5,   0.98573, 3,    6260.21,  119.5,   0.98573
"RAJDEEP_GALARIA_II", 11, 1,     6260.2,   -0.5,   0.98573, 2,     6260.2, -120.5,   0.98573, 3,     6260.2,  119.5,   0.98573
"2_WAY_BAZAR", 11, 1,     6260.2,   -0.5,   0.98573, 2,     6260.2, -120.5,   0.98573, 3,     6260.2,  119.5,   0.98573
"AIESHA", 11, 1,    6259.79,   -0.5,   0.98566, 2,    6259.79, -120.5,   0.98566, 3,    6259.79,  119.5,   0.98566
"GOLDEN_NESTBUS", 0.415, 1,    234.507,   -0.9,   0.97874, 2,    234.507, -120.9,   0.97874, 3,    234.507,  119.1,   0.97874
"SUREKHA_PARKARBUS", 0.415, 1,    233.154,   -1.1,    0.9731, 2,    233.154, -121.1,    0.9731, 3,    233.154,  118.9,    0.9731
"NAGZARBUS", 0.415, 1,    232.972,   -1.1,   0.97234, 2,    232.972, -121.1,   0.97234, 3,    232.972,  118.9,   0.97234
"SARTHAK_NESTBUS", 0.415, 1,     233.92,   -0.9,   0.97629, 2,     233.92, -120.9,   0.97629, 3,     233.92,  119.1,   0.97629
"PROGRESSBUS", 0.415, 1,    232.824,   -1.1,   0.97172, 2,    232.824, -121.1,   0.97172, 3,    232.824,  118.9,   0.97172
"COMMERTIAL_TAXBUS", 0.415, 1,    235.891,   -0.6,   0.98452, 2,    235.891, -120.6,   0.98452, 3,    235.891,  119.4,   0.98452
"PANDITWADABUS", 0.415, 1,    233.679,   -0.9,   0.97529, 2,    233.679, -120.9,   0.97529, 3,    233.679,  119.1,   0.97529
"VEREKAR_2_BUS", 0.415, 1,    233.189,   -1.0,   0.97324, 2,    233.189, -121.0,   0.97324, 3,    233.189,  119.0,   0.97324
"BANDODKARBUS", 0.415, 1,    233.091,   -1.0,   0.97283, 2,    233.091, -121.0,   0.97283, 3,    233.091,  119.0,   0.97283
"KAZIWADABUS", 0.415, 1,    232.512,   -1.1,   0.97041, 2,    232.512, -121.1,   0.97041, 3,    232.512,  118.9,   0.97041
"SADASHIV_TWIN_TOWERBUS", 0.415, 1,    233.743,   -0.9,   0.97555, 2,    233.743, -120.9,   0.97555, 3,    233.743,  119.1,   0.97555
"CANARA_BANKBUS", 0.415, 1,    235.456,   -0.6,    0.9827, 2,    235.456, -120.6,    0.9827, 3,    235.456,  119.4,    0.9827
"KCA_BUS", 0.415, 1,     233.34,   -1.0,   0.97387, 2,     233.34, -121.0,   0.97387, 3,     233.34,  119.0,   0.97387
"BHOSLEBUS", 0.415, 1,    232.275,   -1.1,   0.96943, 2,    232.275, -121.1,   0.96943, 3,    232.275,  118.9,   0.96943
"SUPER_MARKETBUS", 0.415, 1,    235.632,   -0.6,   0.98344, 2,    235.632, -120.6,   0.98344, 3,    235.632,  119.4,   0.98344
"DK_ARCADEBUS", 0.415, 1,    232.215,   -1.1,   0.96918, 2,    232.215, -121.1,   0.96918, 3,    232.215,  118.9,   0.96918
"COELOBUS", 0.415, 1,    232.219,   -1.1,   0.96919, 2,    232.219, -121.1,   0.96919, 3,    232.219,  118.9,   0.96919
"KAMAT_AVR_REALTORSBUS", 0.415, 1,    235.688,   -0.6,   0.98367, 2,    235.688, -120.6,   0.98367, 3,    235.688,  119.4,   0.98367
"BSNL_INTERNALBUS", 0.415, 1,    235.695,   -0.6,    0.9837, 2,    235.695, -120.6,    0.9837, 3,    235.695,  119.4,    0.9837
"KANIR_CONSTRUCTIONBUS", 0.415, 1,    235.709,   -0.6,   0.98376, 2,    235.709, -120.6,   0.98376, 3,    235.709,  119.4,   0.98376
"SUMIT_SHIVAMBUS", 0.415, 1,    232.737,   -1.0,   0.97136, 2,    232.737, -121.0,   0.97136, 3,    232.737,  119.0,   0.97136
"KALPANABUS", 0.415, 1,     232.22,   -1.1,    0.9692, 2,     232.22, -121.1,    0.9692, 3,     232.22,  118.9,    0.9692
"POLICE_STATIONBUS", 0.415, 1,    235.329,   -0.6,   0.98217, 2,    235.329, -120.6,   0.98217, 3,    235.329,  119.4,   0.98217
"GOA_STATE_BANKBUS", 0.415, 1,    235.318,   -0.6,   0.98213, 2,    235.318, -120.6,   0.98213, 3,    235.318,  119.4,   0.98213
"RAJDEEP_GALARIA_I_BUS", 0.415, 1,    235.413,   -0.6,   0.98253, 2,    235.413, -120.6,   0.98253, 3,    235.413,  119.4,   0.98253
"RAJDEEP_GALARIA_II_BUS", 0.415, 1,    235.413,   -0.6,   0.98252, 2,    235.413, -120.6,   0.98252, 3,    235.413,  119.4,   0.98252
"AIESHABUS", 0.415, 1,    232.154,   -1.1,   0.96892, 2,    232.154, -121.1,   0.96892, 3,    232.154,  118.9,   0.96892
"MAMLADTDARBUS", 0.415, 1,    235.199,   -0.6,   0.98163, 2,    235.199, -120.6,   0.98163, 3,    235.199,  119.4,   0.98163
"TARANGAN_I_BUS", 0.415, 1,    233.042,   -1.0,   0.97263, 2,    233.042, -121.0,   0.97263, 3,    233.042,  119.0,   0.97263
"PWDBUS", 0.415, 1,    235.327,   -0.6,   0.98217, 2,    235.327, -120.6,   0.98217, 3,    235.327,  119.4,   0.98217
"RAJMUDRA_I_BUS", 0.415, 1,    231.988,   -1.1,   0.96823, 2,    231.988, -121.1,   0.96823, 3,    231.988,  118.9,   0.96823
"RAJMUDRA_II_BUS", 0.415, 1,    232.963,   -1.0,    0.9723, 2,    232.963, -121.0,    0.9723, 3,    232.963,  119.0,    0.9723
"RAJ_DURGABUS", 0.415, 1,    232.961,   -1.0,   0.97229, 2,    232.961, -121.0,   0.97229, 3,    232.961,  119.0,   0.97229
"SUMIT_PLUMERIABUS", 0.415, 1,    233.459,   -0.9,   0.97437, 2,    233.459, -120.9,   0.97437, 3,    233.459,  119.1,   0.97437
"DAAGBUS", 0.415, 1,    231.915,   -1.1,   0.96792, 2,    231.915, -121.1,   0.96792, 3,    231.915,  118.9,   0.96792
"KANIR_CONSTRUCTIONHTCBUS", 0.415, 1,    236.271,   -0.5,   0.98611, 2,    236.271, -120.5,   0.98611, 3,    236.271,  119.5,   0.98611
"RATNADEEP_APTBUS", 0.415, 1,    233.311,   -1.1,   0.97375, 2,    233.311, -121.1,   0.97375, 3,    233.311,  118.9,   0.97375
"TWIN_TOWERBUS", 0.415, 1,    233.464,   -0.9,   0.97439, 2,    233.464, -120.9,   0.97439, 3,    233.464,  119.1,   0.97439
"3W_COLONY", 11, 1,    6301.15,   -0.5,   0.99217, 2,    6301.15, -120.5,   0.99217, 3,    6301.15,  119.5,   0.99217
"2W_CURTI", 11, 1,    6301.15,   -0.5,   0.99217, 2,    6301.15, -120.5,   0.99217, 3,    6301.15,  119.5,   0.99217
"COLONY", 11, 1,    6300.42,   -0.5,   0.99206, 2,    6300.42, -120.5,   0.99206, 3,    6300.42,  119.5,   0.99206
"NAGA_MASJID_NEW", 11, 1,    6295.87,   -0.4,   0.99134, 2,    6295.87, -120.4,   0.99134, 3,    6295.87,  119.6,   0.99134
"USMANIA", 11, 1,    6293.73,   -0.4,   0.99101, 2,    6293.73, -120.4,   0.99101, 3,    6293.73,  119.6,   0.99101
"HUSSAIN", 11, 1,    6291.96,   -0.4,   0.99073, 2,    6291.96, -120.4,   0.99073, 3,    6291.96,  119.6,   0.99073
"4W_SPORTS_C", 11, 1,    6289.49,   -0.4,   0.99034, 2,    6289.49, -120.4,   0.99034, 3,    6289.49,  119.6,   0.99034
"SPORTS_COMPLEX_HTC", 11, 1,    6289.45,   -0.4,   0.99033, 2,    6289.45, -120.4,   0.99033, 3,    6289.45,  119.6,   0.99033
"SPORTS_COMPLEX", 11, 1,    6289.44,   -0.4,   0.99033, 2,    6289.44, -120.4,   0.99033, 3,    6289.44,  119.6,   0.99033
"3W_SPORTS_C", 11, 1,    6289.42,   -0.4,   0.99033, 2,    6289.42, -120.4,   0.99033, 3,    6289.42,  119.6,   0.99033
"4W_MILITARY_GATE", 11, 1,    6288.13,   -0.4,   0.99012, 2,    6288.13, -120.4,   0.99012, 3,    6288.13,  119.6,   0.99012
"4_WAY_SHEETAL", 11, 1,    6286.99,   -0.4,   0.98994, 2,    6286.99, -120.4,   0.98994, 3,    6286.99,  119.6,   0.98994
"VARKHANDE", 11, 1,    6286.91,   -0.4,   0.98993, 2,    6286.91, -120.4,   0.98993, 3,    6286.91,  119.6,   0.98993
"4_WAY_GANGANATH", 11, 1,     6285.3,   -0.4,   0.98968, 2,     6285.3, -120.4,   0.98968, 3,     6285.3,  119.6,   0.98968
"2_WAY_VARKHANDEM", 11, 1,     6285.3,   -0.4,   0.98968, 2,     6285.3, -120.4,   0.98968, 3,     6285.3,  119.6,   0.98968
"GANGANATH", 11, 1,    6285.24,   -0.4,   0.98967, 2,    6285.24, -120.4,   0.98967, 3,    6285.24,  119.6,   0.98967
"HERITAGE_II", 11, 1,    6284.81,   -0.4,    0.9896, 2,    6284.81, -120.4,    0.9896, 3,    6284.81,  119.6,    0.9896
"HERITAGE_I", 11, 1,    6284.79,   -0.4,    0.9896, 2,    6284.79, -120.4,    0.9896, 3,    6284.79,  119.6,    0.9896
"ALMEDA", 11, 1,    6284.24,   -0.4,   0.98951, 2,    6284.24, -120.4,   0.98951, 3,    6284.24,  119.6,   0.98951
"3_WAY_ALMEDA", 11, 1,    6283.84,   -0.4,   0.98945, 2,    6283.84, -120.4,   0.98945, 3,    6283.84,  119.6,   0.98945
"PATIL", 11, 1,    6279.62,   -0.4,   0.98878, 2,    6279.62, -120.4,   0.98878, 3,    6279.62,  119.6,   0.98878
"3_WAY_PUROHIT", 11, 1,    6275.66,   -0.5,   0.98816, 2,    6275.66, -120.5,   0.98816, 3,    6275.66,  119.5,   0.98816
"PUROHIT", 11, 1,     6275.6,   -0.5,   0.98815, 2,     6275.6, -120.5,   0.98815, 3,     6275.6,  119.5,   0.98815
"BHARDWAJ", 11, 1,    6274.32,   -0.5,   0.98795, 2,    6274.32, -120.5,   0.98795, 3,    6274.32,  119.5,   0.98795
"MAHALAXMI_DEV", 11, 1,     6273.4,   -0.5,    0.9878, 2,     6273.4, -120.5,    0.9878, 3,     6273.4,  119.5,    0.9878
"RAVINAGAR", 11, 1,    6271.48,   -0.5,    0.9875, 2,    6271.48, -120.5,    0.9875, 3,    6271.48,  119.5,    0.9875
"3_WAY_RAVINAGAR", 11, 1,    6271.41,   -0.5,   0.98749, 2,    6271.41, -120.5,   0.98749, 3,    6271.41,  119.5,   0.98749
"2W_RAVINAGAR", 11, 1,    6271.41,   -0.5,   0.98749, 2,    6271.41, -120.5,   0.98749, 3,    6271.41,  119.5,   0.98749
"RANI_CONSTRUCTION", 11, 1,    6274.54,   -0.5,   0.98798, 2,    6274.54, -120.5,   0.98798, 3,    6274.54,  119.5,   0.98798
"KEDAR", 11, 1,    6273.61,   -0.5,   0.98784, 2,    6273.61, -120.5,   0.98784, 3,    6273.61,  119.5,   0.98784
"DESSAI_SANTOBA", 11, 1,     6273.5,   -0.5,   0.98782, 2,     6273.5, -120.5,   0.98782, 3,     6273.5,  119.5,   0.98782
"MAHARUDRA", 11, 1,    6273.41,   -0.5,   0.98781, 2,    6273.41, -120.5,   0.98781, 3,    6273.41,  119.5,   0.98781
"2W_PERIGOL", 11, 1,    6273.41,   -0.5,   0.98781, 2,    6273.41, -120.5,   0.98781, 3,    6273.41,  119.5,   0.98781
"FRIENDS_COLONY", 11, 1,    6269.76,   -0.5,   0.98723, 2,    6269.76, -120.5,   0.98723, 3,    6269.76,  119.5,   0.98723
"KHADPABANDH_GARDEN_II", 11, 1,    6269.31,   -0.5,   0.98716, 2,    6269.31, -120.5,   0.98716, 3,    6269.31,  119.5,   0.98716
"3W_FOUR_POLE", 11, 1,    6268.87,   -0.5,   0.98709, 2,    6268.87, -120.5,   0.98709, 3,    6268.87,  119.5,   0.98709
"KHADPABANDH_GARDEN_I", 11, 1,    6268.32,   -0.5,     0.987, 2,    6268.32, -120.5,     0.987, 3,    6268.32,  119.5,     0.987
"4W_DURBHAT", 11, 1,    6268.87,   -0.5,   0.98709, 2,    6268.87, -120.5,   0.98709, 3,    6268.87,  119.5,   0.98709
"SEVERAGE_HTC", 11, 1,    6268.02,   -0.5,   0.98696, 2,    6268.02, -120.5,   0.98696, 3,    6268.02,  119.5,   0.98696
"3W_DAAG", 11, 1,    6267.41,   -0.5,   0.98686, 2,    6267.41, -120.5,   0.98686, 3,    6267.41,  119.5,   0.98686
"3W_PONDA_I", 11, 1,    6267.41,   -0.5,   0.98686, 2,    6267.41, -120.5,   0.98686, 3,    6267.41,  119.5,   0.98686
"3W_BHAGWATI", 11, 1,    6267.22,   -0.5,   0.98683, 2,    6267.22, -120.5,   0.98683, 3,    6267.22,  119.5,   0.98683
"BHAGWATI_II", 11, 1,    6266.74,   -0.5,   0.98676, 2,    6266.74, -120.5,   0.98676, 3,    6266.74,  119.5,   0.98676
"BHAGWATI_I", 11, 1,     6266.5,   -0.5,   0.98672, 2,     6266.5, -120.5,   0.98672, 3,     6266.5,  119.5,   0.98672
"2W_SATYANARAYAN_TEMPLE", 11, 1,     6266.5,   -0.5,   0.98672, 2,     6266.5, -120.5,   0.98672, 3,     6266.5,  119.5,   0.98672
"ANGARKI", 11, 1,    6284.96,   -0.4,   0.98962, 2,    6284.96, -120.4,   0.98962, 3,    6284.96,  119.6,   0.98962
"3_WAY_MARUTI_TEMPLE", 11, 1,    6286.34,   -0.4,   0.98984, 2,    6286.34, -120.4,   0.98984, 3,    6286.34,  119.6,   0.98984
"4_WAY_MILITARY_GATE", 11, 1,    6286.34,   -0.4,   0.98984, 2,    6286.34, -120.4,   0.98984, 3,    6286.34,  119.6,   0.98984
"SUNGRACE_HTC", 11, 1,    6286.38,   -0.4,   0.98985, 2,    6286.38, -120.4,   0.98985, 3,    6286.38,  119.6,   0.98985
"VRUNDHAVAN_GARDEN", 11, 1,    6286.53,   -0.4,   0.98987, 2,    6286.53, -120.4,   0.98987, 3,    6286.53,  119.6,   0.98987
"SEWERAGE_HTC", 11, 1,     6267.4,   -0.5,   0.98686, 2,     6267.4, -120.5,   0.98686, 3,     6267.4,  119.5,   0.98686
"COLONYBUS", 0.415, 1,    234.725,   -0.9,   0.97965, 2,    234.725, -120.9,   0.97965, 3,    234.725,  119.1,   0.97965
"USMANIABUS", 0.415, 1,    236.573,   -0.6,   0.98736, 2,    236.573, -120.6,   0.98736, 3,    236.573,  119.4,   0.98736
"VARKHANDEBUS", 0.415, 1,    233.703,   -1.0,   0.97539, 2,    233.703, -121.0,   0.97539, 3,    233.703,  119.0,   0.97539
"VRUNDHAVAN_GARDENBUS", 0.415, 1,    234.194,   -0.9,   0.97744, 2,    234.194, -120.9,   0.97744, 3,    234.194,  119.1,   0.97744
"NAGA_MASJID_NEWBUS", 0.415, 1,    235.553,   -0.7,   0.98311, 2,    235.553, -120.7,   0.98311, 3,    235.553,  119.3,   0.98311
"ANGARKIBUS", 0.415, 1,     233.12,   -1.0,   0.97295, 2,     233.12, -121.0,   0.97295, 3,     233.12,  119.0,   0.97295
"GANGANATHBUS", 0.415, 1,    233.131,   -1.0,     0.973, 2,    233.131, -121.0,     0.973, 3,    233.131,  119.0,     0.973
"HERITAGE_IBUS", 0.415, 1,    234.127,   -0.9,   0.97716, 2,    234.127, -120.9,   0.97716, 3,    234.127,  119.1,   0.97716
"HERITAGE_IIBUS", 0.415, 1,    234.128,   -0.9,   0.97716, 2,    234.128, -120.9,   0.97716, 3,    234.128,  119.1,   0.97716
"ALMEDABUS", 0.415, 1,    233.092,   -1.0,   0.97284, 2,    233.092, -121.0,   0.97284, 3,    233.092,  119.0,   0.97284
"PATILBUS", 0.415, 1,    233.424,   -1.0,   0.97422, 2,    233.424, -121.0,   0.97422, 3,    233.424,  119.0,   0.97422
"PUROHITBUS", 0.415, 1,    232.761,   -1.1,   0.97145, 2,    232.761, -121.1,   0.97145, 3,    232.761,  118.9,   0.97145
"BHARDWAJBUS", 0.415, 1,    233.221,   -1.0,   0.97337, 2,    233.221, -121.0,   0.97337, 3,    233.221,  119.0,   0.97337
"MAHALAXMI_DEVBUS", 0.415, 1,    233.692,   -0.9,   0.97534, 2,    233.692, -120.9,   0.97534, 3,    233.692,  119.1,   0.97534
"KEDARBUS", 0.415, 1,    232.684,   -1.1,   0.97113, 2,    232.684, -121.1,   0.97113, 3,    232.684,  118.9,   0.97113
"DESSAI_SANTOBABUS", 0.415, 1,      234.2,   -0.8,   0.97746, 2,      234.2, -120.8,   0.97746, 3,      234.2,  119.2,   0.97746
"RANI_CONSTRUCTIONBUS", 0.415, 1,    233.229,   -1.0,   0.97341, 2,    233.229, -121.0,   0.97341, 3,    233.229,  119.0,   0.97341
"MAHARUDRABUS", 0.415, 1,    233.693,   -0.9,   0.97534, 2,    233.693, -120.9,   0.97534, 3,    233.693,  119.1,   0.97534
"RAVINAGARBUS", 0.415, 1,    232.603,   -1.1,   0.97079, 2,    232.603, -121.1,   0.97079, 3,    232.603,  118.9,   0.97079
"FRIENDS_COLONYBUS", 0.415, 1,    232.536,   -1.1,   0.97052, 2,    232.536, -121.1,   0.97052, 3,    232.536,  118.9,   0.97052
"KHADPABANDH_GARDEN_IIBUS", 0.415, 1,    234.542,   -0.8,   0.97889, 2,    234.542, -120.8,   0.97889, 3,    234.542,  119.2,   0.97889
"KHADPABANDH_GARDEN_IBUS", 0.415, 1,    234.003,   -0.8,   0.97664, 2,    234.003, -120.8,   0.97664, 3,    234.003,  119.2,   0.97664
"SPORTS_COMPLEXBUS", 0.415, 1,    236.411,   -0.6,   0.98669, 2,    236.411, -120.6,   0.98669, 3,    236.411,  119.4,   0.98669
"BHAGWATI_IBUS", 0.415, 1,    232.411,   -1.1,   0.96999, 2,    232.411, -121.1,   0.96999, 3,    232.411,  118.9,   0.96999
"BHAGWATI_IIBUS", 0.415, 1,     232.42,   -1.1,   0.97003, 2,     232.42, -121.1,   0.97003, 3,     232.42,  118.9,   0.97003
"SEWERAGE_HTCBUS", 0.415, 1,    235.796,   -0.6,   0.98412, 2,    235.796, -120.6,   0.98412, 3,    235.796,  119.4,   0.98412
"SPORTS_COMPLEX_HTCBUS", 0.415, 1,     236.52,   -0.6,   0.98715, 2,     236.52, -120.6,   0.98715, 3,     236.52,  119.4,   0.98715
"SUNGRACE_HTCBUS", 0.415, 1,    236.513,   -0.5,   0.98712, 2,    236.513, -120.5,   0.98712, 3,    236.513,  119.5,   0.98712
"CONTROLROOM_SS", 11, 1,    6324.62,   -0.4,   0.99587, 2,    6324.62, -120.4,   0.99587, 3,    6324.62,  119.6,   0.99587
"HAVELI_PANCHAYAT", 11, 1,    6313.47,   -0.4,   0.99411, 2,    6313.47, -120.4,   0.99411, 3,    6313.47,  119.6,   0.99411
"MILITARY_HTC", 11, 1,    6304.93,   -0.4,   0.99277, 2,    6304.93, -120.4,   0.99277, 3,    6304.93,  119.6,   0.99277
"3W_SPORTS_COMPLEX", 11, 1,    6288.13,   -0.4,   0.99012, 2,    6288.13, -120.4,   0.99012, 3,    6288.13,  119.6,   0.99012
"MILITARY_GATE", 11, 1,    6287.93,   -0.4,   0.99009, 2,    6287.93, -120.4,   0.99009, 3,    6287.93,  119.6,   0.99009
"3_WAY_SAFA_MASJID", 11, 1,    6283.98,   -0.4,   0.98947, 2,    6283.98, -120.4,   0.98947, 3,    6283.98,  119.6,   0.98947
"RTO_OFFICE_NEW", 11, 1,    6283.95,   -0.4,   0.98947, 2,    6283.95, -120.4,   0.98947, 3,    6283.95,  119.6,   0.98947
"CHIRPUTEM_SCHOOL", 11, 1,    6283.91,   -0.4,   0.98946, 2,    6283.91, -120.4,   0.98946, 3,    6283.91,  119.6,   0.98946
"2W_KAPAT", 11, 1,    6283.91,   -0.4,   0.98946, 2,    6283.91, -120.4,   0.98946, 3,    6283.91,  119.6,   0.98946
"SHAPUR", 11, 1,    6282.02,   -0.4,   0.98916, 2,    6282.02, -120.4,   0.98916, 3,    6282.02,  119.6,   0.98916
"3_WAY_AMBEGAL", 11, 1,    6280.11,   -0.4,   0.98886, 2,    6280.11, -120.4,   0.98886, 3,    6280.11,  119.6,   0.98886
"4_WAY_AMBEGAL", 11, 1,    6278.78,   -0.4,   0.98865, 2,    6278.78, -120.4,   0.98865, 3,    6278.78,  119.6,   0.98865
"AMBEGAL", 11, 1,    6278.62,   -0.4,   0.98863, 2,    6278.62, -120.4,   0.98863, 3,    6278.62,  119.6,   0.98863
"PATANTALI", 11, 1,    6278.47,   -0.4,    0.9886, 2,    6278.47, -120.4,    0.9886, 3,    6278.47,  119.6,    0.9886
"PANAKAJ_BUILDERS", 11, 1,    6276.14,   -0.5,   0.98824, 2,    6276.14, -120.5,   0.98824, 3,    6276.14,  119.5,   0.98824
"KASHIMATH", 11, 1,    6272.29,   -0.5,   0.98763, 2,    6272.29, -120.5,   0.98763, 3,    6272.29,  119.5,   0.98763
"3_WAY_KASHIMATH", 11, 1,    6271.86,   -0.5,   0.98756, 2,    6271.86, -120.5,   0.98756, 3,    6271.86,  119.5,   0.98756
"2_WAY_NAGESHI", 11, 1,    6271.86,   -0.5,   0.98756, 2,    6271.86, -120.5,   0.98756, 3,    6271.86,  119.5,   0.98756
"GVMS", 11, 1,    6267.51,   -0.5,   0.98688, 2,    6267.51, -120.5,   0.98688, 3,    6267.51,  119.5,   0.98688
"SAHAKARI", 11, 1,    6265.61,   -0.5,   0.98658, 2,    6265.61, -120.5,   0.98658, 3,    6265.61,  119.5,   0.98658
"IMA", 11, 1,    6264.02,   -0.5,   0.98633, 2,    6264.02, -120.5,   0.98633, 3,    6264.02,  119.5,   0.98633
"SHIVNAGARI", 11, 1,    6261.34,   -0.5,    0.9859, 2,    6261.34, -120.5,    0.9859, 3,    6261.34,  119.5,    0.9859
"4_WAY_PES", 11, 1,    6259.98,   -0.5,   0.98569, 2,    6259.98, -120.5,   0.98569, 3,    6259.98,  119.5,   0.98569
"PES", 11, 1,    6259.85,   -0.5,   0.98567, 2,    6259.85, -120.5,   0.98567, 3,    6259.85,  119.5,   0.98567
"3_WAY_POLICE_OUTPOST", 11, 1,    6259.76,   -0.5,   0.98566, 2,    6259.76, -120.5,   0.98566, 3,    6259.76,  119.5,   0.98566
"CONEM_I_HIGHWAY", 11, 1,    6259.63,   -0.5,   0.98564, 2,    6259.63, -120.5,   0.98564, 3,    6259.63,  119.5,   0.98564
"2_WAY_CONEM_HIGHWAY", 11, 1,    6259.56,   -0.5,   0.98562, 2,    6259.56, -120.5,   0.98562, 3,    6259.56,  119.5,   0.98562
"CONEM_II", 11, 1,    6259.53,   -0.5,   0.98562, 2,    6259.53, -120.5,   0.98562, 3,    6259.53,  119.5,   0.98562
"GANESH_TEMPLE", 11, 1,    6259.88,   -0.5,   0.98568, 2,    6259.88, -120.5,   0.98568, 3,    6259.88,  119.5,   0.98568
"NAGESHI", 11, 1,    6259.88,   -0.5,   0.98568, 2,    6259.88, -120.5,   0.98568, 3,    6259.88,  119.5,   0.98568
"GTDC_TOURIST", 11, 1,    6259.81,   -0.5,   0.98566, 2,    6259.81, -120.5,   0.98566, 3,    6259.81,  119.5,   0.98566
"4_WAY_HOUSINGBOARD", 11, 1,    6255.72,   -0.5,   0.98502, 2,    6255.72, -120.5,   0.98502, 3,    6255.72,  119.5,   0.98502
"SAAD_PHASE_II", 11, 1,    6255.63,   -0.5,   0.98501, 2,    6255.63, -120.5,   0.98501, 3,    6255.63,  119.5,   0.98501
"SUNRISE_CASHEW", 11, 1,    6255.39,   -0.5,   0.98497, 2,    6255.39, -120.5,   0.98497, 3,    6255.39,  119.5,   0.98497
"SAAD_I", 11, 1,     6254.8,   -0.5,   0.98488, 2,     6254.8, -120.5,   0.98488, 3,     6254.8,  119.5,   0.98488
"SAAD_II", 11, 1,    6254.74,   -0.5,   0.98487, 2,    6254.74, -120.5,   0.98487, 3,    6254.74,  119.5,   0.98487
"GEC_BANDORA", 11, 1,    6254.67,   -0.5,   0.98486, 2,    6254.67, -120.5,   0.98486, 3,    6254.67,  119.5,   0.98486
"3_WAY_KATAMGAL", 11, 1,    6254.25,   -0.5,   0.98479, 2,    6254.25, -120.5,   0.98479, 3,    6254.25,  119.5,   0.98479
"NIT_HTC", 11, 1,    6254.21,   -0.5,   0.98478, 2,    6254.21, -120.5,   0.98478, 3,    6254.21,  119.5,   0.98478
"KATMGAAL", 11, 1,     6254.2,   -0.5,   0.98478, 2,     6254.2, -120.5,   0.98478, 3,     6254.2,  119.5,   0.98478
"ITI_HTC", 11, 1,     6254.2,   -0.5,   0.98478, 2,     6254.2, -120.5,   0.98478, 3,     6254.2,  119.5,   0.98478
"HOUSING_BOARD_NEW", 11, 1,    6255.51,   -0.5,   0.98499, 2,    6255.51, -120.5,   0.98499, 3,    6255.51,  119.5,   0.98499
"HOUSING_BOARD_I", 11, 1,    6255.47,   -0.5,   0.98498, 2,    6255.47, -120.5,   0.98498, 3,    6255.47,  119.5,   0.98498
"3_WAY_HOUSINGBOARD", 11, 1,    6255.53,   -0.5,   0.98499, 2,    6255.53, -120.5,   0.98499, 3,    6255.53,  119.5,   0.98499
"AMBEGAL_II", 11, 1,    6278.48,   -0.4,    0.9886, 2,    6278.48, -120.4,    0.9886, 3,    6278.48,  119.6,    0.9886
"HAVELI_PANCHAYATBUS", 0.415, 1,    234.721,   -0.9,   0.97963, 2,    234.721, -120.9,   0.97963, 3,    234.721,  119.1,   0.97963
"SHAPURBUS", 0.415, 1,    234.022,   -0.9,   0.97672, 2,    234.022, -120.9,   0.97672, 3,    234.022,  119.1,   0.97672
"AMBEGALBUS", 0.415, 1,    233.892,   -0.9,   0.97617, 2,    233.892, -120.9,   0.97617, 3,    233.892,  119.1,   0.97617
"PATANTALIBUS", 0.415, 1,     233.38,   -1.0,   0.97404, 2,     233.38, -121.0,   0.97404, 3,     233.38,  119.0,   0.97404
"PANAKAJ_BUILDERSBUS", 0.415, 1,    233.797,   -0.9,   0.97578, 2,    233.797, -120.9,   0.97578, 3,    233.797,  119.1,   0.97578
"KASHIMATHBUS", 0.415, 1,     233.65,   -0.9,   0.97517, 2,     233.65, -120.9,   0.97517, 3,     233.65,  119.1,   0.97517
"GVMSBUS", 0.415, 1,     235.69,   -0.6,   0.98368, 2,     235.69, -120.6,   0.98368, 3,     235.69,  119.4,   0.98368
"SAHAKARIBUS", 0.415, 1,    233.395,   -0.9,    0.9741, 2,    233.395, -120.9,    0.9741, 3,    233.395,  119.1,    0.9741
"IMABUS", 0.415, 1,    235.777,   -0.5,   0.98404, 2,    235.777, -120.5,   0.98404, 3,    235.777,  119.5,   0.98404
"SHIVNAGARIBUS", 0.415, 1,    232.213,   -1.1,   0.96917, 2,    232.213, -121.1,   0.96917, 3,    232.213,  118.9,   0.96917
"GANESH_TEMPLEBUS", 0.415, 1,    232.157,   -1.1,   0.96893, 2,    232.157, -121.1,   0.96893, 3,    232.157,  118.9,   0.96893
"GTDC_TOURISTBUS", 0.415, 1,    235.728,   -0.5,   0.98384, 2,    235.728, -120.5,   0.98384, 3,    235.728,  119.5,   0.98384
"PESBUS", 0.415, 1,     235.29,   -0.6,   0.98201, 2,     235.29, -120.6,   0.98201, 3,     235.29,  119.4,   0.98201
"SUNRISE_CASHEWBUS", 0.415, 1,    235.231,   -0.6,   0.98176, 2,    235.231, -120.6,   0.98176, 3,    235.231,  119.4,   0.98176
"HOUSING_BOARD_NEWBUS", 0.415, 1,    233.514,   -0.9,    0.9746, 2,    233.514, -120.9,    0.9746, 3,    233.514,  119.1,    0.9746
"HOUSING_BOARD_IBUS", 0.415, 1,    233.007,   -0.9,   0.97248, 2,    233.007, -120.9,   0.97248, 3,    233.007,  119.1,   0.97248
"SAAD_PHASE_IIBUS", 0.415, 1,    233.519,   -0.9,   0.97462, 2,    233.519, -120.9,   0.97462, 3,    233.519,  119.1,   0.97462
"SAAD_IBUS", 0.415, 1,    232.981,   -0.9,   0.97238, 2,    232.981, -120.9,   0.97238, 3,    232.981,  119.1,   0.97238
"SAAD_IIBUS", 0.415, 1,    232.979,   -0.9,   0.97236, 2,    232.979, -120.9,   0.97236, 3,    232.979,  119.1,   0.97236
"KATMGAALBUS", 0.415, 1,    232.959,   -0.9,   0.97228, 2,    232.959, -120.9,   0.97228, 3,    232.959,  119.1,   0.97228
"CONEM_IIBUS", 0.415, 1,    233.162,   -0.9,   0.97313, 2,    233.162, -120.9,   0.97313, 3,    233.162,  119.1,   0.97313
"CONEM_I_HIGHWAYBUS", 0.415, 1,    233.166,   -0.9,   0.97314, 2,    233.166, -120.9,   0.97314, 3,    233.166,  119.1,   0.97314
"NIT_HTCBUS", 0.415, 1,    235.516,   -0.5,   0.98295, 2,    235.516, -120.5,   0.98295, 3,    235.516,  119.5,   0.98295
"ITI_HTCBUS", 0.415, 1,    235.296,   -0.6,   0.98204, 2,    235.296, -120.6,   0.98204, 3,    235.296,  119.4,   0.98204
"CHIRPUTEM_SCHOOLBUS", 0.415, 1,    236.311,   -0.6,   0.98627, 2,    236.311, -120.6,   0.98627, 3,    236.311,  119.4,   0.98627
"RTO_OFFICE_NEWBUS", 0.415, 1,    236.202,   -0.6,   0.98582, 2,    236.202, -120.6,   0.98582, 3,    236.202,  119.4,   0.98582
"AMBEGAL_IIBUS", 0.415, 1,    232.871,   -1.1,   0.97191, 2,    232.871, -121.1,   0.97191, 3,    232.871,  118.9,   0.97191
"MILITARY_GATEBUS", 0.415, 1,    234.247,   -0.9,   0.97766, 2,    234.247, -120.9,   0.97766, 3,    234.247,  119.1,   0.97766
